tests/fuzzer/corpus_json/21_random_007.json
{
  "version": "1.0",
  "type": "input",
  "is_batch": false,
  "attributes": {},
  "data": {
    "node": [
      {
        "id": 0,
        "u_rated": 400.0
      },
      {
        "id": 1,
        "u_rated": 400.0
      },
      {
        "id": 2,
        "u_rated": 400.0
      },
      {
        "id": 3,
        "u_rated": 400.0
      },
      {
        "id": 4,
        "u_rated": 400.0
      },
      {
        "id": 5,
        "u_rated": 400.0
      },
      {
        "id": 6,
        "u_rated": 400.0
      }
    ],
    "source": [
      {
        "id": 7,
        "node": 0,
        "status": 1,
        "u_ref": 0.9096572847253624,
        "u_ref_angle": 0.0,
        "sk": 394884014.07353115,
        "rx_ratio": 0.41063714599565415,
        "z01_ratio": 1.0
      },
      {
        "id": 8,
        "node": 6,
        "status": 1,
        "u_ref": 1.0,
        "u_ref_angle": 0.0,
        "sk": 582829727.1027647,
        "rx_ratio": 0.1,
        "z01_ratio": 1.0
      }
    ],
    "line": [
      {
        "id": 9,
        "from_node": 0,
        "to_node": 1,
        "from_status": 1,
        "to_status": 1,
        "r1": 4.548520315715511,
        "x1": 1.0734909041783087,
        "c1": 8.594723368917168e-08,
        "tan1": 0.0,
        "r0": 0.3,
        "x0": 0.3,
        "c0": 1e-09,
        "tan0": 0.0,
        "i_n": 423.9904298570519
      },
      {
        "id": 10,
        "from_node": 1,
        "to_node": 2,
        "from_status": 1,
        "to_status": 1,
        "r1": 1.2033150006351252,
        "x1": 2.7552362689569287,
        "c1": 5.911050607898915e-08,
        "tan1": 0.0,
        "r0": 0.3,
        "x0": 0.3,
        "c0": 1e-09,
        "tan0": 0.0,
        "i_n": 569.7991572511489
      },
      {
        "id": 11,
        "from_node": 2,
        "to_node": 3,
        "from_status": 1,
        "to_status": 1,
        "r1": 4.737248503537438,
        "x1": 3.1531295786586853,
        "c1": 5.829969044604073e-07,
        "tan1": 0.0,
        "r0": 0.3,
        "x0": 0.3,
        "c0": 1e-09,
        "tan0": 0.0,
        "i_n": 71.24342785277899
      },
      {
        "id": 12,
        "from_node": 3,
        "to_node": 4,
        "from_status": 1,
        "to_status": 1,
        "r1": 2.927707113201934,
        "x1": 0.2479465669488573,
        "c1": 2.2108182345764837e-07,
        "tan1": 0.0,
        "r0": 0.3,
        "x0": 0.3,
        "c0": 1e-09,
        "tan0": 0.0,
        "i_n": 561.0982489577217
      },
      {
        "id": 13,
        "from_node": 4,
        "to_node": 5,
        "from_status": 1,
        "to_status": 1,
        "r1": 0.6658740822080256,
        "x1": 2.095695217857326,
        "c1": 5.406858855321424e-07,
        "tan1": 0.0,
        "r0": 0.3,
        "x0": 0.3,
        "c0": 1e-09,
        "tan0": 0.0,
        "i_n": 575.204552750267
      },
      {
        "id": 14,
        "from_node": 5,
        "to_node": 6,
        "from_status": 1,
        "to_status": 1,
        "r1": 2.8012863850640635,
        "x1": 3.410013473806023,
        "c1": 1.0305571244359135e-07,
        "tan1": 0.0,
        "r0": 0.3,
        "x0": 0.3,
        "c0": 1e-09,
        "tan0": 0.0,
        "i_n": 575.4923474976744
      }
    ],
    "sym_load": [
      {
        "id": 15,
        "node": 1,
        "status": 1,
        "type": 0,
        "p_specified": 9548.893141911569,
        "q_specified": -8744.220500533538
      },
      {
        "id": 16,
        "node": 2,
        "status": 1,
        "type": 0,
        "p_specified": -717.1009773016413,
        "q_specified": 634.4049316037144
      },
      {
        "id": 17,
        "node": 4,
        "status": 1,
        "type": 1,
        "p_specified": -27683.528811086726,
        "q_specified": -5031.4683028490135
      },
      {
        "id": 18,
        "node": 5,
        "status": 1,
        "type": 0,
        "p_specified": -83628.99784084603,
        "q_specified": -3995.0176290874942
      },
      {
        "id": 19,
        "node": 6,
        "status": 1,
        "type": 1,
        "p_specified": 45889.05788784352,
        "q_specified": -4241.24470219627
      }
    ]
  }
}